Circuit: * Customized PTM 65nm PMOS

Fatal Error: No analysis request found.
