Circuit: * C:\Users\CHAITANYA VARUN\Desktop\my_files\Semester_5\AnalogCircuits\MiniProjects\MiniProject_3\design_1.2.asc

Direct Newton iteration for .op point succeeded.

Date: Sat Dec 11 15:39:44 2021
Total elapsed time: 0.110 seconds.

tnom = 27
temp = 27
method = trap
totiter = 8
traniter = 0
tranpoints = 0
accept = 0
rejected = 0
matrix size = 45
fillins = 2
solver = Normal
Matrix Compiler1:     350 opcodes
Matrix Compiler2: 5.50 KB object code size
