Circuit: * C:\Users\CHAITANYA VARUN\Desktop\my_files\Semester_5\AnalogCircuits\MiniProjects\MiniProject_3\design_2.asc

Direct Newton iteration failed to find .op point.  (Use ".option noopiter" to skip.)
Starting Gmin stepping
Gmin = 10
Gmin = 1.07374
vernier = 0.5
vernier = 0.25
vernier = 0.125
vernier = 0.0625
vernier = 0.03125
Gmin = 1.18892
vernier = 0.015625
vernier = 0.0078125
vernier = 0.00390625
Gmin = 1.17168
vernier = 0.00195313
vernier = 0.000976563
vernier = 0.000488281
Gmin = 0
Gmin = 0
Gmin stepping failed

Starting source stepping with srcstepmethod=0
Source Step = 3.0303%
Source Step = 33.3333%
Source Step = 63.6364%
Source Step = 93.9394%
Source stepping succeeded in finding the operating point.


Date: Sat Dec 11 09:24:47 2021
Total elapsed time: 0.359 seconds.

tnom = 27
temp = 27
method = trap
totiter = 1810
traniter = 0
tranpoints = 0
accept = 0
rejected = 0
matrix size = 45
fillins = 24
solver = Normal
Matrix Compiler1:     355 opcodes
Matrix Compiler2: off  [1.4]/1.6/1.6

