Circuit: * C:\Users\CHAITANYA VARUN\Desktop\my_files\Semester_5\AnalogCircuits\MiniProjects\MiniProject_3\design_1.3.asc

Direct Newton iteration for .op point succeeded.

Date: Sat Dec 11 15:51:34 2021
Total elapsed time: 0.129 seconds.

tnom = 27
temp = 27
method = trap
totiter = 23
traniter = 0
tranpoints = 0
accept = 0
rejected = 0
matrix size = 45
fillins = 0
solver = Normal
Matrix Compiler1:     327 opcodes
Matrix Compiler2: 5.40 KB object code size
