Circuit: * C:\Users\CHAITANYA VARUN\Desktop\my_files\Semester_5\AnalogCircuits\MiniProjects\MiniProject_3\design_1.asc

Direct Newton iteration failed to find .op point.  (Use ".option noopiter" to skip.)
Starting Gmin stepping
Gmin = 10
Gmin = 1.07374
vernier = 0.5
vernier = 0.25
vernier = 0.125
vernier = 0.0625
Gmin = 1.1391
vernier = 0.03125
vernier = 0.015625
vernier = 0.0078125
vernier = 0.00390625
vernier = 0.00195313
vernier = 0.000976563
vernier = 0.000488281
Gmin = 1.12157
Gmin = 0
Gmin stepping succeeded in finding the operating point.


Date: Sat Dec 11 15:11:30 2021
Total elapsed time: 0.182 seconds.

tnom = 27
temp = 27
method = trap
totiter = 1756
traniter = 0
tranpoints = 0
accept = 0
rejected = 0
matrix size = 45
fillins = 6
solver = Normal
Matrix Compiler1:     320 opcodes
Matrix Compiler2: 5.47 KB object code size  0.6/0.7/[0.5]

