Circuit: * C:\Users\CHAITANYA VARUN\Desktop\my_files\Semester_5\AnalogCircuits\MiniProjects\MiniProject_3\test1.asc

.step v2=0.3
.step v2=0.5
.step v2=0.7
.step v2=0.9
.step v2=1.1

Date: Fri Dec 10 17:53:24 2021
Total elapsed time: 0.192 seconds.

tnom = 27
temp = 27
method = trap
totiter = 1125
traniter = 0
tranpoints = 0
accept = 0
rejected = 0
matrix size = 8
fillins = 0
solver = Normal
Matrix Compiler1: 336 bytes object code size  0.1/0.1/[0.0]
Matrix Compiler2: 656 bytes object code size  0.1/0.1/[0.1]

