Circuit: * Customized PTM 65nm NMOS

Fatal Error: No analysis request found.
