Circuit: * C:\Users\CHAITANYA VARUN\Desktop\my_files\Semester_5\AnalogCircuits\MiniProjects\MiniProject_1\nmos65_trial.asc


Date: Sat Sep 25 17:19:36 2021
Total elapsed time: 0.086 seconds.

tnom = 27
temp = 27
method = trap
totiter = 4004
traniter = 0
tranpoints = 0
accept = 0
rejected = 0
matrix size = 8
fillins = 0
solver = Normal
Matrix Compiler1: 336 bytes object code size  0.1/0.1/[0.0]
Matrix Compiler2: 656 bytes object code size  0.1/0.1/[0.0]

