Circuit: * C:\Users\CHAITANYA VARUN\Desktop\my_files\Semester_5\AnalogCircuits\MiniProjects\MiniProject_1\nmos65_trial2.asc

WARNING: Less than two connections to node N001.  This node is used by V1.

Date: Sun Sep 26 11:31:28 2021
Total elapsed time: 0.099 seconds.

tnom = 27
temp = 27
method = trap
totiter = 4011
traniter = 0
tranpoints = 0
accept = 0
rejected = 0
matrix size = 19
fillins = 2
solver = Normal
Matrix Compiler1: 982 bytes object code size  0.2/0.1/[0.1]
Matrix Compiler2: 1.63 KB object code size  0.2/0.2/[0.1]

