Circuit: * C:\Users\CHAITANYA VARUN\Desktop\my_files\Semester_5\AnalogCircuits\MiniProjects\MiniProject_1\pmos65_trial1.asc

WARNING: Node B is floating.

WARNING: Less than two connections to node B.  This node is used by M1.

Date: Sun Sep 26 10:23:51 2021
Total elapsed time: 0.055 seconds.

tnom = 27
temp = 27
method = trap
totiter = 2010
traniter = 0
tranpoints = 0
accept = 0
rejected = 0
matrix size = 9
fillins = 0
solver = Normal
Matrix Compiler1: 510 bytes object code size  0.1/0.1/[0.1]
Matrix Compiler2: 809 bytes object code size  0.1/0.1/[0.1]

